<?xml version="1.0" encoding="UTF-8"?>

<!-- generated on 2026-04-05T19:53:50.738169+01:00 by Eclipse SUMO netconvert 1.25.0
<netconvertConfiguration xmlns:xsi="http://www.w3.org/2001/XMLSchema-instance" xsi:noNamespaceSchemaLocation="http://sumo.dlr.de/xsd/netconvertConfiguration.xsd">

    <input>
        <osm-files value="sumo_network/blida.osm"/>
    </input>

    <output>
        <output-file value="sumo_network/blida_standard.net.xml"/>
        <output.street-names value="true"/>
        <output.original-names value="true"/>
    </output>

    <projection>
        <proj.utm value="true"/>
    </projection>

    <processing>
        <geometry.remove value="true"/>
        <roundabouts.guess value="true"/>
    </processing>

    <tls_building>
        <tls.set value="1172439356,1449025137,1705550907,1705550924,1172438657,1172438750,1172439087,1172439152,1788379490,1788379515,1788379518,1992455088,1172439370,1449582288,1449582291,1172439017,1172439200,1775940261,1172438944,1172439108,1172439257,1703161233,1775910833,1775940290,1449025102,1703184930,1775910835,11328467968,11328558873,11328558875,1788396563"/>
        <tls.join value="true"/>
        <tls.min-dur value="30"/>
        <tls.max-dur value="30"/>
    </tls_building>

    <ramp_guessing>
        <ramps.guess value="true"/>
    </ramp_guessing>

    <edge_removal>
        <keep-edges.by-vclass value="passenger"/>
    </edge_removal>

    <junctions>
        <no-turnarounds value="true"/>
        <junctions.join value="true"/>
    </junctions>

</netconvertConfiguration>
-->

<net version="1.20" junctionCornerDetail="5" limitTurnSpeed="5.50" xmlns:xsi="http://www.w3.org/2001/XMLSchema-instance" xsi:noNamespaceSchemaLocation="http://sumo.dlr.de/xsd/net_file.xsd">

    <location netOffset="-483115.73,-4035582.92" convBoundary="0.00,0.00,2810.70,1793.83" origBoundary="2.811535,36.465403,2.842906,36.481548" projParameter="+proj=utm +zone=31 +ellps=WGS84 +datum=WGS84 +units=m +no_defs"/>

    <type id="highway.primary" priority="12" numLanes="2" speed="27.78" disallow="tram rail_urban rail rail_electric rail_fast ship container cable_car subway aircraft wheelchair scooter drone" oneway="0"/>
    <type id="highway.residential" priority="3" numLanes="1" speed="13.89" disallow="tram rail_urban rail rail_electric rail_fast ship container cable_car subway aircraft wheelchair scooter drone" oneway="0"/>
    <type id="highway.secondary" priority="11" numLanes="1" speed="27.78" disallow="tram rail_urban rail rail_electric rail_fast ship container cable_car subway aircraft wheelchair scooter drone" oneway="0"/>
    <type id="highway.tertiary" priority="10" numLanes="1" speed="22.22" disallow="tram rail_urban rail rail_electric rail_fast ship container cable_car subway aircraft wheelchair scooter drone" oneway="0"/>

    <edge id=":11053165910_0" function="internal">
        <lane id=":11053165910_0_0" index="0" disallow="tram rail_urban rail rail_electric rail_fast ship container cable_car subway aircraft wheelchair scooter drone" speed="5.59" length="9.34" shape="2164.15,276.82 2161.82,275.17 2160.01,274.99 2158.73,276.27 2157.97,279.02"/>
    </edge>
    <edge id=":11053165910_1" function="internal">
        <lane id=":11053165910_1_0" index="0" disallow="tram rail_urban rail rail_electric rail_fast ship container cable_car subway aircraft wheelchair scooter drone" speed="13.89" length="15.83" shape="2164.15,276.82 2151.91,266.77"/>
    </edge>
    <edge id=":11053165910_2" function="internal">
        <lane id=":11053165910_2_0" index="0" disallow="tram rail_urban rail rail_electric rail_fast ship container cable_car subway aircraft wheelchair scooter drone" speed="13.89" length="16.73" shape="2153.44,263.80 2166.31,274.47"/>
    </edge>
    <edge id=":11053165910_3" function="internal">
        <lane id=":11053165910_3_0" index="0" disallow="tram rail_urban rail rail_electric rail_fast ship container cable_car subway aircraft wheelchair scooter drone" speed="11.71" length="3.96" shape="2153.44,263.80 2155.93,266.87"/>
    </edge>
    <edge id=":11053165910_6" function="internal">
        <lane id=":11053165910_6_0" index="0" disallow="tram rail_urban rail rail_electric rail_fast ship container cable_car subway aircraft wheelchair scooter drone" speed="11.71" length="12.55" shape="2155.93,266.87 2157.52,270.44 2158.20,274.49 2157.97,279.02"/>
    </edge>
    <edge id=":11053165910_4" function="internal">
        <lane id=":11053165910_4_0" index="0" disallow="tram rail_urban rail rail_electric rail_fast ship container cable_car subway aircraft wheelchair scooter drone" speed="10.28" length="12.60" shape="2154.80,278.57 2155.05,274.86 2154.65,271.65 2153.60,268.96 2151.91,266.77"/>
    </edge>
    <edge id=":11053165910_5" function="internal">
        <lane id=":11053165910_5_0" index="0" disallow="tram rail_urban rail rail_electric rail_fast ship container cable_car subway aircraft wheelchair scooter drone" speed="7.38" length="17.41" shape="2154.80,278.57 2156.22,273.44 2158.61,271.05 2161.97,271.39 2166.31,274.47"/>
    </edge>
    <edge id=":11328467968_0" function="internal">
        <lane id=":11328467968_0_0" index="0" disallow="tram rail_urban rail rail_electric rail_fast ship container cable_car subway aircraft wheelchair scooter drone" speed="11.11" length="12.06" shape="1862.80,957.79 1861.69,945.78"/>
    </edge>
    <edge id=":11328467968_1" function="internal">
        <lane id=":11328467968_1_0" index="0" disallow="tram rail_urban rail rail_electric rail_fast ship container cable_car subway aircraft wheelchair scooter drone" speed="9.19" length="2.25" shape="1862.80,957.79 1863.16,955.75 1863.26,955.60"/>
    </edge>
    <edge id=":11328467968_6" function="internal">
        <lane id=":11328467968_6_0" index="0" disallow="tram rail_urban rail rail_electric rail_fast ship container cable_car subway aircraft wheelchair scooter drone" speed="9.19" length="10.21" shape="1863.26,955.60 1864.60,953.58 1867.13,951.27 1870.74,948.83"/>
    </edge>
    <edge id=":11328467968_2" function="internal">
        <lane id=":11328467968_2_0" index="0" disallow="tram rail_urban rail rail_electric rail_fast ship container cable_car subway aircraft wheelchair scooter drone" speed="7.86" length="8.93" shape="1872.40,951.56 1869.53,953.43 1867.50,955.03 1866.32,956.37 1865.98,957.45"/>
    </edge>
    <edge id=":11328467968_3" function="internal">
        <lane id=":11328467968_3_0" index="0" disallow="tram rail_urban rail rail_electric rail_fast ship container cable_car subway aircraft wheelchair scooter drone" speed="7.38" length="16.05" shape="1872.40,951.56 1868.12,953.39 1864.90,953.03 1862.76,950.50 1861.69,945.78"/>
    </edge>
    <edge id=":11328467968_4" function="internal">
        <lane id=":11328467968_4_0" index="0" disallow="tram rail_urban rail rail_electric rail_fast ship container cable_car subway aircraft wheelchair scooter drone" speed="5.67" length="8.90" shape="1864.87,945.48 1865.47,948.14 1866.64,949.58 1868.40,949.81 1870.74,948.83"/>
    </edge>
    <edge id=":11328467968_5" function="internal">
        <lane id=":11328467968_5_0" index="0" disallow="tram rail_urban rail rail_electric rail_fast ship container cable_car subway aircraft wheelchair scooter drone" speed="11.11" length="12.02" shape="1864.87,945.48 1865.98,957.45"/>
    </edge>
    <edge id=":11328558873_0" function="internal">
        <lane id=":11328558873_0_0" index="0" disallow="tram rail_urban rail rail_electric rail_fast ship container cable_car subway aircraft wheelchair scooter drone" speed="12.71" length="12.42" shape="1884.16,948.02 1880.87,947.87 1878.12,948.48 1875.49,949.72 1872.57,951.46"/>
    </edge>
    <edge id=":11328558873_1" function="internal">
        <lane id=":11328558873_1_0" index="0" disallow="tram rail_urban rail rail_electric rail_fast ship container cable_car subway aircraft wheelchair scooter drone" speed="12.60" length="14.77" shape="1884.16,948.02 1880.32,947.10 1876.96,945.60 1874.08,943.52 1871.68,940.86"/>
    </edge>
    <edge id=":11328558873_2" function="internal">
        <lane id=":11328558873_2_0" index="0" disallow="tram rail_urban rail rail_electric rail_fast ship container cable_car subway aircraft wheelchair scooter drone" speed="12.08" length="13.54" shape="1873.52,937.95 1875.83,940.58 1878.47,942.61 1881.44,944.04 1884.75,944.87"/>
    </edge>
    <edge id=":11328558873_3" function="internal">
        <lane id=":11328558873_3_0" index="0" disallow="tram rail_urban rail rail_electric rail_fast ship container cable_car subway aircraft wheelchair scooter drone" speed="8.14" length="3.90" shape="1873.52,937.95 1875.45,941.34"/>
    </edge>
    <edge id=":11328558873_6" function="internal">
        <lane id=":11328558873_6_0" index="0" disallow="tram rail_urban rail rail_electric rail_fast ship container cable_car subway aircraft wheelchair scooter drone" speed="8.14" length="11.79" shape="1875.45,941.34 1875.92,942.16 1876.56,945.81 1875.44,948.91 1872.57,951.46"/>
    </edge>
    <edge id=":11328558873_4" function="internal">
        <lane id=":11328558873_4_0" index="0" disallow="tram rail_urban rail rail_electric rail_fast ship container cable_car subway aircraft wheelchair scooter drone" speed="6.37" length="9.17" shape="1870.92,948.72 1872.66,947.21 1873.37,945.39 1873.04,943.27 1871.68,940.86"/>
    </edge>
    <edge id=":11328558873_5" function="internal">
        <lane id=":11328558873_5_0" index="0" disallow="tram rail_urban rail rail_electric rail_fast ship container cable_car subway aircraft wheelchair scooter drone" speed="13.78" length="14.65" shape="1870.92,948.72 1874.19,946.92 1877.58,945.54 1881.10,944.79 1884.75,944.87"/>
    </edge>
    <edge id=":11328558875_0" function="internal">
        <lane id=":11328558875_0_0" index="0" disallow="tram rail_urban rail rail_electric rail_fast ship container cable_car subway aircraft wheelchair scooter drone" speed="5.60" length="11.99" shape="1868.72,936.79 1865.95,933.48 1864.28,932.64 1863.69,934.24 1864.18,938.30"/>
    </edge>
    <edge id=":11328558875_1" function="internal">
        <lane id=":11328558875_1_0" index="0" disallow="tram rail_urban rail rail_electric rail_fast ship container cable_car subway aircraft wheelchair scooter drone" speed="11.11" length="23.96" shape="1860.48,913.66 1861.94,918.52 1864.95,924.64 1868.43,930.58 1871.30,934.90"/>
    </edge>
    <edge id=":11328558875_2" function="internal">
        <lane id=":11328558875_2_0" index="0" disallow="tram rail_urban rail rail_electric rail_fast ship container cable_car subway aircraft wheelchair scooter drone" speed="8.33" length="24.92" shape="1860.48,913.66 1861.11,918.93 1862.13,926.01 1863.26,933.08 1864.18,938.30"/>
    </edge>
    <edge id=":1172438624_0" function="internal">
        <lane id=":1172438624_0_0" index="0" disallow="tram rail_urban rail rail_electric rail_fast ship container cable_car subway aircraft wheelchair scooter drone" speed="6.17" length="9.33" shape="1604.31,600.99 1602.44,599.24 1600.53,598.68 1598.58,599.33 1596.58,601.17"/>
    </edge>
    <edge id=":1172438624_1" function="internal">
        <lane id=":1172438624_1_0" index="0" disallow="tram rail_urban rail rail_electric rail_fast ship container cable_car subway aircraft wheelchair scooter drone" speed="13.89" length="16.57" shape="1604.31,600.99 1594.07,587.97"/>
    </edge>
    <edge id=":1172438624_2" function="internal">
        <lane id=":1172438624_2_0" index="0" disallow="tram rail_urban rail rail_electric rail_fast ship container cable_car subway aircraft wheelchair scooter drone" speed="9.16" length="4.70" shape="1604.31,600.99 1602.58,597.53 1602.45,596.72"/>
    </edge>
    <edge id=":1172438624_12" function="internal">
        <lane id=":1172438624_12_0" index="0" disallow="tram rail_urban rail rail_electric rail_fast ship container cable_car subway aircraft wheelchair scooter drone" speed="9.16" length="11.10" shape="1602.45,596.72 1601.95,593.42 1602.46,589.37 1604.09,586.07"/>
    </edge>
    <edge id=":1172438624_3" function="internal">
        <lane id=":1172438624_3_0" index="0" disallow="tram rail_urban rail rail_electric rail_fast ship container cable_car subway aircraft wheelchair scooter drone" speed="8.03" length="11.94" shape="1606.56,588.10 1604.99,590.72 1604.50,593.42 1605.12,596.18 1606.83,599.02"/>
    </edge>
    <edge id=":1172438624_4" function="internal">
        <lane id=":1172438624_4_0" index="0" disallow="tram rail_urban rail rail_electric rail_fast ship container cable_car subway aircraft wheelchair scooter drone" speed="13.89" length="16.44" shape="1606.56,588.10 1596.58,601.17"/>
    </edge>
    <edge id=":1172438624_5" function="internal">
        <lane id=":1172438624_5_0" index="0" disallow="tram rail_urban rail rail_electric rail_fast ship container cable_car subway aircraft wheelchair scooter drone" speed="7.67" length="15.09" shape="1606.56,588.10 1603.41,590.98 1600.27,591.92 1597.16,590.91 1594.07,587.97"/>
    </edge>
    <edge id=":1172438624_6" function="internal">
        <lane id=":1172438624_6_0" index="0" disallow="tram rail_urban rail rail_electric rail_fast ship container cable_car subway aircraft wheelchair scooter drone" speed="6.09" length="9.06" shape="1596.59,585.99 1598.44,587.76 1600.31,588.36 1602.20,587.80 1604.09,586.07"/>
    </edge>
    <edge id=":1172438624_7" function="internal">
        <lane id=":1172438624_7_0" index="0" disallow="tram rail_urban rail rail_electric rail_fast ship container cable_car subway aircraft wheelchair scooter drone" speed="13.89" length="16.57" shape="1596.59,585.99 1606.83,599.02"/>
    </edge>
    <edge id=":1172438624_8" function="internal">
        <lane id=":1172438624_8_0" index="0" disallow="tram rail_urban rail rail_electric rail_fast ship container cable_car subway aircraft wheelchair scooter drone" speed="9.23" length="4.65" shape="1596.59,585.99 1598.30,589.48 1598.41,590.23"/>
    </edge>
    <edge id=":1172438624_13" function="internal">
        <lane id=":1172438624_13_0" index="0" disallow="tram rail_urban rail rail_electric rail_fast ship container cable_car subway aircraft wheelchair scooter drone" speed="9.23" length="11.42" shape="1598.41,590.23 1598.88,593.65 1598.30,597.78 1596.58,601.17"/>
    </edge>
    <edge id=":1172438624_9" function="internal">
        <lane id=":1172438624_9_0" index="0" disallow="tram rail_urban rail rail_electric rail_fast ship container cable_car subway aircraft wheelchair scooter drone" speed="8.30" length="12.81" shape="1593.67,599.67 1595.54,596.70 1596.23,593.76 1595.74,590.85 1594.07,587.97"/>
    </edge>
    <edge id=":1172438624_10" function="internal">
        <lane id=":1172438624_10_0" index="0" disallow="tram rail_urban rail rail_electric rail_fast ship container cable_car subway aircraft wheelchair scooter drone" speed="13.89" length="17.13" shape="1593.67,599.67 1604.09,586.07"/>
    </edge>
    <edge id=":1172438624_11" function="internal">
        <lane id=":1172438624_11_0" index="0" disallow="tram rail_urban rail rail_electric rail_fast ship container cable_car subway aircraft wheelchair scooter drone" speed="7.85" length="15.87" shape="1593.67,599.67 1597.12,596.45 1600.46,595.26 1603.70,596.12 1606.83,599.02"/>
    </edge>
    <edge id=":1172438625_0" function="internal">
        <lane id=":1172438625_0_0" index="0" disallow="tram rail_urban rail rail_electric rail_fast ship container cable_car subway aircraft wheelchair scooter drone" speed="13.89" length="14.75" shape="1659.38,361.40 1650.29,349.78"/>
    </edge>
    <edge id=":1172438625_1" function="internal">
        <lane id=":1172438625_1_0" index="0" disallow="tram rail_urban rail rail_electric rail_fast ship container cable_car subway aircraft wheelchair scooter drone" speed="8.64" length="3.99" shape="1659.38,361.40 1657.52,358.24 1657.47,357.92"/>
    </edge>
    <edge id=":1172438625_6" function="internal">
        <lane id=":1172438625_6_0" index="0" disallow="tram rail_urban rail rail_electric rail_fast ship container cable_car subway aircraft wheelchair scooter drone" speed="8.64" length="10.65" shape="1657.47,357.92 1657.06,354.97 1658.01,351.61 1660.37,348.15"/>
    </edge>
    <edge id=":1172438625_2" function="internal">
        <lane id=":1172438625_2_0" index="0" disallow="tram rail_urban rail rail_electric rail_fast ship container cable_car subway aircraft wheelchair scooter drone" speed="7.26" length="10.08" shape="1662.78,350.26 1661.09,352.69 1660.38,355.02 1660.63,357.24 1661.85,359.36"/>
    </edge>
    <edge id=":1172438625_3" function="internal">
        <lane id=":1172438625_3_0" index="0" disallow="tram rail_urban rail rail_electric rail_fast ship container cable_car subway aircraft wheelchair scooter drone" speed="7.67" length="15.06" shape="1662.78,350.26 1659.55,353.04 1656.39,353.88 1653.31,352.80 1650.29,349.78"/>
    </edge>
    <edge id=":1172438625_4" function="internal">
        <lane id=":1172438625_4_0" index="0" disallow="tram rail_urban rail rail_electric rail_fast ship container cable_car subway aircraft wheelchair scooter drone" speed="6.10" length="9.06" shape="1652.86,347.87 1654.67,349.68 1656.53,350.33 1658.43,349.82 1660.37,348.15"/>
    </edge>
    <edge id=":1172438625_5" function="internal">
        <lane id=":1172438625_5_0" index="0" disallow="tram rail_urban rail rail_electric rail_fast ship container cable_car subway aircraft wheelchair scooter drone" speed="13.89" length="14.59" shape="1652.86,347.87 1661.85,359.36"/>
    </edge>
    <edge id=":1172438647_0" function="internal">
        <lane id=":1172438647_0_0" index="0" disallow="tram rail_urban rail rail_electric rail_fast ship container cable_car subway aircraft wheelchair scooter drone" speed="6.30" length="7.92" shape="1413.68,651.78 1413.25,650.34 1413.65,648.79 1414.90,647.13 1416.98,645.37"/>
    </edge>
    <edge id=":1172438647_1" function="internal">
        <lane id=":1172438647_1_0" index="0" disallow="tram rail_urban rail rail_electric rail_fast ship container cable_car subway aircraft wheelchair scooter drone" speed="22.22" length="9.44" shape="1409.37,650.95 1416.98,645.37"/>
    </edge>
    <edge id=":1172438647_2" function="internal">
        <lane id=":1172438647_2_0" index="0" disallow="tram rail_urban rail rail_electric rail_fast ship container cable_car subway aircraft wheelchair scooter drone" speed="6.00" length="8.01" shape="1409.37,650.95 1411.76,649.46 1413.73,648.82 1415.27,649.03 1416.41,650.11"/>
    </edge>
    <edge id=":1172438655_0" function="internal">
        <lane id=":1172438655_0_0" index="0" disallow="tram rail_urban rail rail_electric rail_fast ship container cable_car subway aircraft wheelchair scooter drone" speed="6.51" length="9.07" shape="1606.71,425.48 1604.99,423.66 1603.11,422.84 1601.07,422.99 1598.88,424.14"/>
    </edge>
    <edge id=":1172438655_1" function="internal">
        <lane id=":1172438655_1_0" index="0" disallow="tram rail_urban rail rail_electric rail_fast ship container cable_car subway aircraft wheelchair scooter drone" speed="7.96" length="14.28" shape="1606.71,425.48 1604.91,421.99 1604.68,418.78 1606.02,415.86 1608.93,413.22"/>
    </edge>
    <edge id=":1172438655_2" function="internal">
        <lane id=":1172438655_2_0" index="0" disallow="tram rail_urban rail rail_electric rail_fast ship container cable_car subway aircraft wheelchair scooter drone" speed="6.46" length="9.03" shape="1610.72,415.87 1608.88,417.54 1608.04,419.39 1608.18,421.42 1609.32,423.63"/>
    </edge>
    <edge id=":1172438655_3" function="internal">
        <lane id=":1172438655_3_0" index="0" disallow="tram rail_urban rail rail_electric rail_fast ship container cable_car subway aircraft wheelchair scooter drone" speed="13.89" length="14.45" shape="1610.72,415.87 1598.88,424.14"/>
    </edge>
    <edge id=":1172438655_4" function="internal">
        <lane id=":1172438655_4_0" index="0" disallow="tram rail_urban rail rail_electric rail_fast ship container cable_car subway aircraft wheelchair scooter drone" speed="13.89" length="14.55" shape="1597.01,421.55 1608.93,413.22"/>
    </edge>
    <edge id=":1172438655_5" function="internal">
        <lane id=":1172438655_5_0" index="0" disallow="tram rail_urban rail rail_electric rail_fast ship container cable_car subway aircraft wheelchair scooter drone" speed="8.00" length="4.18" shape="1597.01,421.55 1600.46,419.74 1600.74,419.72"/>
    </edge>
    <edge id=":1172438655_6" function="internal">
        <lane id=":1172438655_6_0" index="0" disallow="tram rail_urban rail rail_electric rail_fast ship container cable_car subway aircraft wheelchair scooter drone" speed="8.00" length="10.08" shape="1600.74,419.72 1603.67,419.48 1606.62,420.78 1609.32,423.63"/>
    </edge>
    <edge id=":1172438657_0" function="internal">
        <lane id=":1172438657_0_0" index="0" disallow="tram rail_urban rail rail_electric rail_fast ship container cable_car subway aircraft wheelchair scooter drone" speed="5.62" length="9.29" shape="1682.31,700.24 1680.29,698.27 1678.53,697.79 1677.01,698.82 1675.75,701.34"/>
    </edge>
    <edge id=":1172438657_1" function="internal">
        <lane id=":1172438657_1_0" index="0" disallow="tram rail_urban rail rail_electric rail_fast ship container cable_car subway aircraft wheelchair scooter drone" speed="13.89" length="19.23" shape="1682.31,700.24 1670.42,685.12"/>
    </edge>
    <edge id=":1172438657_2" function="internal">
        <lane id=":1172438657_2_0" index="0" disallow="tram rail_urban rail rail_electric rail_fast ship container cable_car subway aircraft wheelchair scooter drone" speed="11.48" length="5.36" shape="1682.31,700.24 1680.21,696.31 1679.99,695.44"/>
    </edge>
    <edge id=":1172438657_12" function="internal">
        <lane id=":1172438657_12_0" index="0" disallow="tram rail_urban rail rail_electric rail_fast ship container cable_car subway aircraft wheelchair scooter drone" speed="11.48" length="13.41" shape="1679.99,695.44 1678.99,691.44 1678.79,686.47 1679.71,682.25"/>
    </edge>
    <edge id=":1172438657_3" function="internal">
        <lane id=":1172438657_3_0" index="0" disallow="tram rail_urban rail rail_electric rail_fast ship container cable_car subway aircraft wheelchair scooter drone" speed="10.53" length="15.69" shape="1682.65,683.52 1681.54,687.34 1681.53,691.08 1682.63,694.72 1684.82,698.26"/>
    </edge>
    <edge id=":1172438657_4" function="internal">
        <lane id=":1172438657_4_0" index="0" disallow="tram rail_urban rail rail_electric rail_fast ship container cable_car subway aircraft wheelchair scooter drone" speed="13.89" length="19.11" shape="1682.65,683.52 1675.75,701.34"/>
    </edge>
    <edge id=":1172438657_5" function="internal">
        <lane id=":1172438657_5_0" index="0" disallow="tram rail_urban rail rail_electric rail_fast ship container cable_car subway aircraft wheelchair scooter drone" speed="7.42" length="4.21" shape="1682.65,683.52 1680.49,687.13"/>
    </edge>
    <edge id=":1172438657_13" function="internal">
        <lane id=":1172438657_13_0" index="0" disallow="tram rail_urban rail rail_electric rail_fast ship container cable_car subway aircraft wheelchair scooter drone" speed="7.42" length="12.42" shape="1680.49,687.13 1680.10,687.78 1677.21,689.47 1673.98,688.58 1670.42,685.12"/>
    </edge>
    <edge id=":1172438657_6" function="internal">
        <lane id=":1172438657_6_0" index="0" disallow="tram rail_urban rail rail_electric rail_fast ship container cable_car subway aircraft wheelchair scooter drone" speed="5.70" length="9.21" shape="1672.93,683.14 1674.91,685.06 1676.70,685.55 1678.30,684.62 1679.71,682.25"/>
    </edge>
    <edge id=":1172438657_7" function="internal">
        <lane id=":1172438657_7_0" index="0" disallow="tram rail_urban rail rail_electric rail_fast ship container cable_car subway aircraft wheelchair scooter drone" speed="13.89" length="19.23" shape="1672.93,683.14 1684.82,698.26"/>
    </edge>
    <edge id=":1172438657_8" function="internal">
        <lane id=":1172438657_8_0" index="0" disallow="tram rail_urban rail rail_electric rail_fast ship container cable_car subway aircraft wheelchair scooter drone" speed="12.04" length="5.19" shape="1672.93,683.14 1674.96,686.97 1675.17,687.80"/>
    </edge>
    <edge id=":1172438657_14" function="internal">
        <lane id=":1172438657_14_0" index="0" disallow="tram rail_urban rail rail_electric rail_fast ship container cable_car subway aircraft wheelchair scooter drone" speed="12.04" length="13.73" shape="1675.17,687.80 1676.19,691.85 1676.50,696.92 1675.75,701.34"/>
    </edge>
    <edge id=":1172438657_9" function="internal">
        <lane id=":1172438657_9_0" index="0" disallow="tram rail_urban rail rail_electric rail_fast ship container cable_car subway aircraft wheelchair scooter drone" speed="11.11" length="16.03" shape="1672.73,700.28 1673.69,696.16 1673.63,692.26 1672.54,688.58 1670.42,685.12"/>
    </edge>
    <edge id=":1172438657_10" function="internal">
        <lane id=":1172438657_10_0" index="0" disallow="tram rail_urban rail rail_electric rail_fast ship container cable_car subway aircraft wheelchair scooter drone" speed="13.89" length="19.33" shape="1672.73,700.28 1679.71,682.25"/>
    </edge>
    <edge id=":1172438657_11" function="internal">
        <lane id=":1172438657_11_0" index="0" disallow="tram rail_urban rail rail_electric rail_fast ship container cable_car subway aircraft wheelchair scooter drone" speed="7.39" length="5.37" shape="1672.73,700.28 1675.06,695.63 1675.20,695.54"/>
    </edge>
    <edge id=":1172438657_15" function="internal">
        <lane id=":1172438657_15_0" index="0" disallow="tram rail_urban rail rail_electric rail_fast ship container cable_car subway aircraft wheelchair scooter drone" speed="7.39" length="11.77" shape="1675.20,695.54 1677.85,693.75 1681.11,694.62 1684.82,698.26"/>
    </edge>
    <edge id=":1172438672_0" function="internal">
        <lane id=":1172438672_0_0" index="0" disallow="tram rail_urban rail rail_electric rail_fast ship container cable_car subway aircraft wheelchair scooter drone" speed="13.89" length="14.40" shape="1455.41,403.08 1446.64,391.66"/>
    </edge>
    <edge id=":1172438672_1" function="internal">
        <lane id=":1172438672_1_0" index="0" disallow="tram rail_urban rail rail_electric rail_fast ship container cable_car subway aircraft wheelchair scooter drone" speed="7.97" length="4.08" shape="1455.41,403.08 1453.49,399.67 1453.47,399.50"/>
    </edge>
    <edge id=":1172438672_6" function="internal">
        <lane id=":1172438672_6_0" index="0" disallow="tram rail_urban rail rail_electric rail_fast ship container cable_car subway aircraft wheelchair scooter drone" speed="7.97" length="10.18" shape="1453.47,399.50 1453.14,396.47 1454.35,393.50 1457.14,390.74"/>
    </edge>
    <edge id=":1172438672_2" function="internal">
        <lane id=":1172438672_2_0" index="0" disallow="tram rail_urban rail rail_electric rail_fast ship container cable_car subway aircraft wheelchair scooter drone" speed="6.47" length="9.03" shape="1459.04,393.32 1457.28,395.06 1456.51,396.94 1456.73,398.97 1457.95,401.13"/>
    </edge>
    <edge id=":1172438672_3" function="internal">
        <lane id=":1172438672_3_0" index="0" disallow="tram rail_urban rail rail_electric rail_fast ship container cable_car subway aircraft wheelchair scooter drone" speed="8.06" length="14.22" shape="1459.04,393.32 1455.61,395.18 1452.39,395.53 1449.41,394.35 1446.64,391.66"/>
    </edge>
    <edge id=":1172438672_4" function="internal">
        <lane id=":1172438672_4_0" index="0" disallow="tram rail_urban rail rail_electric rail_fast ship container cable_car subway aircraft wheelchair scooter drone" speed="6.57" length="9.12" shape="1449.18,389.71 1450.95,391.43 1452.86,392.18 1454.93,391.95 1457.14,390.74"/>
    </edge>
    <edge id=":1172438672_5" function="internal">
        <lane id=":1172438672_5_0" index="0" disallow="tram rail_urban rail rail_electric rail_fast ship container cable_car subway aircraft wheelchair scooter drone" speed="13.89" length="14.40" shape="1449.18,389.71 1457.95,401.13"/>
    </edge>
    <edge id=":1172438681_0" function="internal">
        <lane id=":1172438681_0_0" index="0" disallow="tram rail_urban rail rail_electric rail_fast ship container cable_car subway aircraft wheelchair scooter drone" speed="27.78" length="10.67" shape="1259.76,367.08 1250.87,372.97"/>
    </edge>
    <edge id=":1172438681_1" function="internal">
        <lane id=":1172438681_1_0" index="0" disallow="tram rail_urban rail rail_electric rail_fast ship container cable_car subway aircraft wheelchair scooter drone" speed="20.84" length="10.76" shape="1247.75,366.81 1250.85,366.43 1253.17,366.23 1255.38,365.71 1258.10,364.35"/>
    </edge>
    <edge id=":1172438681_2" function="internal">
        <lane id=":1172438681_2_0" index="0" disallow="tram rail_urban rail rail_electric rail_fast ship container cable_car subway aircraft wheelchair scooter drone" speed="6.73" length="18.38" shape="1247.75,366.81 1254.36,366.08 1257.08,366.87 1255.92,369.16 1250.87,372.97"/>
    </edge>
    <edge id=":1172438681_3" function="internal">
        <lane id=":1172438681_3_0" index="0" disallow="tram rail_urban rail rail_electric rail_fast ship container cable_car subway aircraft wheelchair scooter drone" speed="27.78" length="10.77" shape="1249.12,370.29 1258.10,364.35"/>
    </edge>
    <edge id=":1172438735_0" function="internal">