<?xml version="1.0" encoding="UTF-8"?>

<!-- generated on 2026-03-31 19:58:39.572891 by Eclipse SUMO randomTrips.py v1_25_0+0000-ac6c5a6752d
<configuration>
    <net-file value="sumo_network/blida_tls.net.xml"/>
    <output-trip-file value="sumo_network/routes_low.rou.xml"/>
    <trip-attributes value="departLane=&quot;best&quot; departSpeed=&quot;max&quot;"/>
    <remove-loops value="True"/>
    <period value="18.0"/>
</configuration>
-->

<routes xmlns:xsi="http://www.w3.org/2001/XMLSchema-instance" xsi:noNamespaceSchemaLocation="http://sumo.dlr.de/xsd/routes_file.xsd">
    <trip id="0" depart="0.00" from="158067302#0" to="-101529564#1" departLane="best" departSpeed="max"/>
    <trip id="1" depart="18.00" from="-188625453#0" to="-166112566#4" departLane="best" departSpeed="max"/>
    <trip id="2" depart="36.00" from="174997407#0" to="166108477" departLane="best" departSpeed="max"/>
    <trip id="3" depart="54.00" from="41163178#3" to="-101529601#3" departLane="best" departSpeed="max"/>
    <trip id="4" depart="72.00" from="-458530475#6" to="-101529565#2" departLane="best" departSpeed="max"/>
    <trip id="5" depart="90.00" from="-166112567#0" to="101529584#7" departLane="best" departSpeed="max"/>
    <trip id="6" depart="108.00" from="-101529564#1" to="-164787115#4" departLane="best" departSpeed="max"/>
    <trip id="7" depart="126.00" from="158331424#0" to="101529608#1" departLane="best" departSpeed="max"/>
    <trip id="8" depart="144.00" from="-166112567#1" to="131694126#2" departLane="best" departSpeed="max"/>
    <trip id="9" depart="162.00" from="331831045#1" to="-101529556#1" departLane="best" departSpeed="max"/>
    <trip id="10" depart="180.00" from="331831041#2" to="166112568#0" departLane="best" departSpeed="max"/>
    <trip id="11" depart="198.00" from="-343920703#1" to="-158065941" departLane="best" departSpeed="max"/>
    <trip id="12" depart="216.00" from="458530475#2" to="-355151258" departLane="best" departSpeed="max"/>
    <trip id="13" depart="234.00" from="-101529608#0" to="-101529608#0" departLane="best" departSpeed="max"/>
    <trip id="14" depart="252.00" from="37192091#2" to="131860496#0" departLane="best" departSpeed="max"/>
    <trip id="15" depart="270.00" from="331831045#0" to="167444111#1" departLane="best" departSpeed="max"/>
    <trip id="16" depart="288.00" from="101529600#3" to="475322821#7" departLane="best" departSpeed="max"/>
    <trip id="17" depart="306.00" from="-41163180#3" to="101529608#7" departLane="best" departSpeed="max"/>
    <trip id="18" depart="324.00" from="358379962#4" to="157364355#8" departLane="best" departSpeed="max"/>
    <trip id="19" depart="342.00" from="37192362#16" to="131685624" departLane="best" departSpeed="max"/>
    <trip id="20" depart="360.00" from="166112568#0" to="-101529581#1" departLane="best" departSpeed="max"/>
    <trip id="21" depart="378.00" from="-166157817" to="-202278146#1" departLane="best" departSpeed="max"/>
    <trip id="22" depart="396.00" from="-101529601#2" to="-166157817" departLane="best" departSpeed="max"/>
    <trip id="23" depart="414.00" from="-101529608#6" to="-188625453#2" departLane="best" departSpeed="max"/>
    <trip id="24" depart="432.00" from="158066951#0" to="-41163179#0" departLane="best" departSpeed="max"/>
    <trip id="25" depart="450.00" from="-41163178#7" to="-166109761" departLane="best" departSpeed="max"/>
    <trip id="26" depart="468.00" from="-176215518#2" to="420103605#4" departLane="best" departSpeed="max"/>
    <trip id="27" depart="486.00" from="158331422#1" to="157364355#2" departLane="best" departSpeed="max"/>
    <trip id="28" depart="504.00" from="-158331422#1" to="167444111#1" departLane="best" departSpeed="max"/>
    <trip id="29" depart="522.00" from="-158067302#2" to="-41163181#4" departLane="best" departSpeed="max"/>
    <trip id="30" depart="540.00" from="56039233" to="158190657" departLane="best" departSpeed="max"/>
    <trip id="31" depart="558.00" from="101529608#2" to="166111207" departLane="best" departSpeed="max"/>
    <trip id="32" depart="576.00" from="364674679#1" to="254618313" departLane="best" departSpeed="max"/>
    <trip id="33" depart="594.00" from="-166157817" to="-101529565#4" departLane="best" departSpeed="max"/>
    <trip id="34" depart="612.00" from="-316554020" to="-176215518#2" departLane="best" departSpeed="max"/>
    <trip id="35" depart="630.00" from="-166111207" to="420103605#7" departLane="best" departSpeed="max"/>
    <trip id="36" depart="648.00" from="37192362#9" to="-317069656" departLane="best" departSpeed="max"/>
    <trip id="37" depart="666.00" from="158331739#1" to="-42638958#0" departLane="best" departSpeed="max"/>
    <trip id="38" depart="684.00" from="41163181#3" to="101529557#1" departLane="best" departSpeed="max"/>
    <trip id="39" depart="702.00" from="-176215518#1" to="-167443628#2" departLane="best" departSpeed="max"/>
    <trip id="40" depart="720.00" from="101529608#6" to="-174997407#1" departLane="best" departSpeed="max"/>
    <trip id="41" depart="738.00" from="131685624" to="41163178#7" departLane="best" departSpeed="max"/>
    <trip id="42" depart="756.00" from="-41163183#1" to="-166112566#2" departLane="best" departSpeed="max"/>
    <trip id="43" depart="774.00" from="623589546#0" to="101529587" departLane="best" departSpeed="max"/>
    <trip id="44" depart="792.00" from="-101529607" to="-101529583" departLane="best" departSpeed="max"/>
    <trip id="45" depart="810.00" from="-1221454043" to="158065941" departLane="best" departSpeed="max"/>
    <trip id="46" depart="828.00" from="305404138#0" to="-475322821#5" departLane="best" departSpeed="max"/>
    <trip id="47" depart="846.00" from="-101529596#0" to="-41163181#5" departLane="best" departSpeed="max"/>
    <trip id="48" depart="864.00" from="623589545" to="101529601#1" departLane="best" departSpeed="max"/>
    <trip id="49" depart="882.00" from="475322821#6" to="37192362#18" departLane="best" departSpeed="max"/>
    <trip id="50" depart="900.00" from="-101529558#0" to="167443629#0" departLane="best" departSpeed="max"/>
    <trip id="51" depart="918.00" from="166108477" to="101529604#1" departLane="best" departSpeed="max"/>
    <trip id="52" depart="936.00" from="-176215518#2" to="158190658" departLane="best" departSpeed="max"/>
    <trip id="53" depart="954.00" from="-131685029#0" to="-476759673#2" departLane="best" departSpeed="max"/>
    <trip id="54" depart="972.00" from="-623589546#0" to="42638968#3" departLane="best" departSpeed="max"/>
    <trip id="55" depart="990.00" from="37192362#9" to="-176215518#0" departLane="best" departSpeed="max"/>
    <trip id="56" depart="1008.00" from="101529581#1" to="-158331739#0" departLane="best" departSpeed="max"/>
    <trip id="57" depart="1026.00" from="41163181#2" to="37192362#7" departLane="best" departSpeed="max"/>
    <trip id="58" depart="1044.00" from="-254618313" to="158190657" departLane="best" departSpeed="max"/>
    <trip id="59" depart="1062.00" from="131860496#0" to="-158065939#1" departLane="best" departSpeed="max"/>
    <trip id="60" depart="1080.00" from="202278144#1" to="101529606" departLane="best" departSpeed="max"/>
    <trip id="61" depart="1098.00" from="254618313" to="101529601#2" departLane="best" departSpeed="max"/>
    <trip id="62" depart="1116.00" from="-101529554#0" to="-331831045#1" departLane="best" departSpeed="max"/>
    <trip id="63" depart="1134.00" from="-101529563#1" to="41163183#2" departLane="best" departSpeed="max"/>
    <trip id="64" depart="1152.00" from="387583698#0" to="358379962#5" departLane="best" departSpeed="max"/>
    <trip id="65" depart="1170.00" from="-305404138#1" to="-101529584#6" departLane="best" departSpeed="max"/>
    <trip id="66" depart="1188.00" from="380665028" to="42638961#1" departLane="best" departSpeed="max"/>
    <trip id="67" depart="1206.00" from="-101529604#1" to="101529565#6" departLane="best" departSpeed="max"/>
    <trip id="68" depart="1224.00" from="-101529597#1" to="202278144#2" departLane="best" departSpeed="max"/>
    <trip id="69" depart="1242.00" from="202278144#4" to="-131860183#0" departLane="best" departSpeed="max"/>
    <trip id="70" depart="1260.00" from="101529563#2" to="101529608#4" departLane="best" departSpeed="max"/>
    <trip id="71" depart="1278.00" from="-176215518#1" to="37192362#8" departLane="best" departSpeed="max"/>
    <trip id="72" depart="1296.00" from="-458530475#7" to="-166109763" departLane="best" departSpeed="max"/>
    <trip id="73" depart="1314.00" from="101529601#1" to="167444111#1" departLane="best" departSpeed="max"/>
    <trip id="74" depart="1332.00" from="-164787117#1" to="-315524869" departLane="best" departSpeed="max"/>
    <trip id="75" depart="1350.00" from="623589544" to="158331739#1" departLane="best" departSpeed="max"/>
    <trip id="76" depart="1368.00" from="-476759672#5" to="101529597#1" departLane="best" departSpeed="max"/>
    <trip id="77" depart="1386.00" from="-131685626#3" to="-166112567#0" departLane="best" departSpeed="max"/>
    <trip id="78" depart="1404.00" from="-343920702" to="131694126#2" departLane="best" departSpeed="max"/>
    <trip id="79" depart="1422.00" from="-101529597#2" to="158066951#1" departLane="best" departSpeed="max"/>
    <trip id="80" depart="1440.00" from="-166157817" to="41163180#2" departLane="best" departSpeed="max"/>
    <trip id="81" depart="1458.00" from="37192362#15" to="-101529596#1" departLane="best" departSpeed="max"/>
    <trip id="82" depart="1476.00" from="-167442912" to="164787115#4" departLane="best" departSpeed="max"/>
    <trip id="83" depart="1494.00" from="-166112566#2" to="-131860496#0" departLane="best" departSpeed="max"/>
    <trip id="84" depart="1512.00" from="420103605#3" to="128927161#1" departLane="best" departSpeed="max"/>
    <trip id="85" depart="1530.00" from="101529563#0" to="277037139#1" departLane="best" departSpeed="max"/>
    <trip id="86" depart="1548.00" from="331831045#0" to="-164787114#6" departLane="best" departSpeed="max"/>
    <trip id="87" depart="1566.00" from="-101529608#3" to="-476759672#5" departLane="best" departSpeed="max"/>
    <trip id="88" depart="1584.00" from="-458530475#7" to="101529563#0" departLane="best" departSpeed="max"/>
    <trip id="89" depart="1602.00" from="167443631#0" to="164787117#0" departLane="best" departSpeed="max"/>
    <trip id="90" depart="1620.00" from="476759673#3" to="-101529608#1" departLane="best" departSpeed="max"/>
    <trip id="91" depart="1638.00" from="-42638958#0" to="-363488901#1" departLane="best" departSpeed="max"/>
    <trip id="92" depart="1656.00" from="37192362#16" to="-167443629#0" departLane="best" departSpeed="max"/>
    <trip id="93" depart="1674.00" from="-164787114#8" to="101529554#0" departLane="best" departSpeed="max"/>
    <trip id="94" depart="1692.00" from="-458530475#6" to="-188625453#2" departLane="best" departSpeed="max"/>
    <trip id="95" depart="1710.00" from="-167443629#1" to="41163182#3" departLane="best" departSpeed="max"/>
    <trip id="96" depart="1728.00" from="-476759673#3" to="37192362#18" departLane="best" departSpeed="max"/>
    <trip id="97" depart="1746.00" from="101529606" to="-101529584#10" departLane="best" departSpeed="max"/>
    <trip id="98" depart="1764.00" from="623589546#1" to="363490839#1" departLane="best" departSpeed="max"/>
    <trip id="99" depart="1782.00" from="475322821#4" to="41163183#0" departLane="best" departSpeed="max"/>
    <trip id="100" depart="1800.00" from="37192091#3" to="-158067302#2" departLane="best" departSpeed="max"/>
    <trip id="101" depart="1818.00" from="101529565#2" to="-166109764" departLane="best" departSpeed="max"/>
    <trip id="102" depart="1836.00" from="-41163183#2" to="-101529584#6" departLane="best" departSpeed="max"/>
    <trip id="103" depart="1854.00" from="-41163180#3" to="476759674" departLane="best" departSpeed="max"/>
    <trip id="104" depart="1872.00" from="-176215518#1" to="277037139#0" departLane="best" departSpeed="max"/>
    <trip id="105" depart="1890.00" from="-623589546#1" to="-475322821#5" departLane="best" departSpeed="max"/>
    <trip id="106" depart="1908.00" from="458530475#3" to="623589545" departLane="best" departSpeed="max"/>
    <trip id="107" depart="1926.00" from="101529608#2" to="167443628#2" departLane="best" departSpeed="max"/>
    <trip id="108" depart="1944.00" from="-158065941" to="-213848618#2" departLane="best" departSpeed="max"/>
    <trip id="109" depart="1962.00" from="475322821#4" to="131685625" departLane="best" departSpeed="max"/>
    <trip id="110" depart="1980.00" from="101529601#3" to="185780228#1" departLane="best" departSpeed="max"/>
    <trip id="111" depart="1998.00" from="-101529584#8" to="131685626#3" departLane="best" departSpeed="max"/>
    <trip id="112" depart="2016.00" from="101529583" to="37192362#11" departLane="best" departSpeed="max"/>
    <trip id="113" depart="2034.00" from="-158066951#0" to="458530475#6" departLane="best" departSpeed="max"/>
    <trip id="114" depart="2052.00" from="-101529601#2" to="-164787114#2" departLane="best" departSpeed="max"/>
    <trip id="115" depart="2070.00" from="131694126#2" to="166108477" departLane="best" departSpeed="max"/>
    <trip id="116" depart="2088.00" from="-167442434" to="-131685626#0" departLane="best" departSpeed="max"/>
    <trip id="117" depart="2106.00" from="41163178#2" to="-167443628#2" departLane="best" departSpeed="max"/>
    <trip id="118" depart="2124.00" from="131694126#1" to="157364355#8" departLane="best" departSpeed="max"/>
    <trip id="119" depart="2142.00" from="-458530475#3" to="131685626#3" departLane="best" departSpeed="max"/>
    <trip id="120" depart="2160.00" from="101529595" to="420103605#0" departLane="best" departSpeed="max"/>
    <trip id="121" depart="2178.00" from="-166109759" to="167443626" departLane="best" departSpeed="max"/>
    <trip id="122" depart="2196.00" from="-167442912" to="-42638958#0" departLane="best" departSpeed="max"/>
    <trip id="123" depart="2214.00" from="164787115#1" to="-277036932#0" departLane="best" departSpeed="max"/>
    <trip id="124" depart="2232.00" from="-316554020" to="188625453#2" departLane="best" departSpeed="max"/>
    <trip id="125" depart="2250.00" from="-101529598" to="101529557#1" departLane="best" departSpeed="max"/>
    <trip id="126" depart="2268.00" from="623589546#1" to="623589545" departLane="best" departSpeed="max"/>
    <trip id="127" depart="2286.00" from="-101529600#2" to="-166109764" departLane="best" departSpeed="max"/>
    <trip id="128" depart="2304.00" from="-176215518#1" to="41163591#1" departLane="best" departSpeed="max"/>
    <trip id="129" depart="2322.00" from="387583698#1" to="387583698#0" departLane="best" departSpeed="max"/>
    <trip id="130" depart="2340.00" from="-41163178#7" to="-158065942" departLane="best" departSpeed="max"/>
    <trip id="131" depart="2358.00" from="157364355#0" to="541561687#1" departLane="best" departSpeed="max"/>
    <trip id="132" depart="2376.00" from="158331739#0" to="-101529556#1" departLane="best" departSpeed="max"/>
    <trip id="133" depart="2394.00" from="343920702" to="-254618313" departLane="best" departSpeed="max"/>
    <trip id="134" depart="2412.00" from="164787114#3" to="420103605#5" departLane="best" departSpeed="max"/>
    <trip id="135" depart="2430.00" from="-1221454036#0" to="101529608#8" departLane="best" departSpeed="max"/>
    <trip id="136" depart="2448.00" from="-185780228#1" to="131860496#1" departLane="best" departSpeed="max"/>
    <trip id="137" depart="2466.00" from="167443626" to="-164787117#1" departLane="best" departSpeed="max"/>
    <trip id="138" depart="2484.00" from="158065942" to="-176215518#0" departLane="best" departSpeed="max"/>
    <trip id="139" depart="2502.00" from="101529565#4" to="41163180#2" departLane="best" departSpeed="max"/>
    <trip id="140" depart="2520.00" from="37192091#1" to="-101529604#2" departLane="best" departSpeed="max"/>
    <trip id="141" depart="2538.00" from="-458530475#7" to="-188625453#1" departLane="best" departSpeed="max"/>
    <trip id="142" depart="2556.00" from="-101529555" to="213848618#0" departLane="best" departSpeed="max"/>
    <trip id="143" depart="2574.00" from="158066951#1" to="-174997407#1" departLane="best" departSpeed="max"/>
    <trip id="144" depart="2592.00" from="176215518#1" to="101529608#7" departLane="best" departSpeed="max"/>
    <trip id="145" depart="2610.00" from="-475322821#1" to="-101529557#3" departLane="best" departSpeed="max"/>
    <trip id="146" depart="2628.00" from="-101529600#3" to="41163136#1" departLane="best" departSpeed="max"/>
    <trip id="147" depart="2646.00" from="41163180#0" to="101529608#2" departLane="best" departSpeed="max"/>
    <trip id="148" depart="2664.00" from="363488901#1" to="131685626#2" departLane="best" departSpeed="max"/>
    <trip id="149" depart="2682.00" from="-157364355#9" to="-131859526" departLane="best" departSpeed="max"/>
    <trip id="150" depart="2700.00" from="-305404138#1" to="41163178#8" departLane="best" departSpeed="max"/>
    <trip id="151" depart="2718.00" from="316451262" to="37192362#18" departLane="best" departSpeed="max"/>
    <trip id="152" depart="2736.00" from="41163178#8" to="-166109761" departLane="best" departSpeed="max"/>
    <trip id="153" depart="2754.00" from="-167443629#1" to="-101529608#3" departLane="best" departSpeed="max"/>
    <trip id="154" depart="2772.00" from="26325056#0" to="41163136#1" departLane="best" departSpeed="max"/>
    <trip id="155" depart="2790.00" from="-42638961#0" to="157364355#9" departLane="best" departSpeed="max"/>
    <trip id="156" depart="2808.00" from="-158065941" to="41163183#2" departLane="best" departSpeed="max"/>
    <trip id="157" depart="2826.00" from="37192362#2" to="476759672#2" departLane="best" departSpeed="max"/>
    <trip id="158" depart="2844.00" from="-101529564#0" to="176215518#0" departLane="best" departSpeed="max"/>
    <trip id="159" depart="2862.00" from="-339587411" to="41163591#0" departLane="best" departSpeed="max"/>
    <trip id="160" depart="2880.00" from="331831041#0" to="37192362#3" departLane="best" departSpeed="max"/>
    <trip id="161" depart="2898.00" from="277036932#2" to="-101529608#8" departLane="best" departSpeed="max"/>
    <trip id="162" depart="2916.00" from="37192362#7" to="37192362#15" departLane="best" departSpeed="max"/>
    <trip id="163" depart="2934.00" from="-166112567#2" to="343920701#1" departLane="best" departSpeed="max"/>
    <trip id="164" depart="2952.00" from="101529555" to="-277037139#0" departLane="best" departSpeed="max"/>
    <trip id="165" depart="2970.00" from="315524869" to="-166112567#2" departLane="best" departSpeed="max"/>
    <trip id="166" depart="2988.00" from="-101529563#3" to="-164787114#8" departLane="best" departSpeed="max"/>
    <trip id="167" depart="3006.00" from="-331831045#0" to="37192362#3" departLane="best" departSpeed="max"/>
    <trip id="168" depart="3024.00" from="475322821#2" to="-188625453#3" departLane="best" departSpeed="max"/>
    <trip id="169" depart="3042.00" from="158067302#2" to="-42638961#1" departLane="best" departSpeed="max"/>
    <trip id="170" depart="3060.00" from="476759673#2" to="101529604#1" departLane="best" departSpeed="max"/>
    <trip id="171" depart="3078.00" from="420103605#5" to="-131685029#1" departLane="best" departSpeed="max"/>
    <trip id="172" depart="3096.00" from="475322821#6" to="-158331739#0" departLane="best" departSpeed="max"/>
    <trip id="173" depart="3114.00" from="458530475#7" to="-176215518#1" departLane="best" departSpeed="max"/>
    <trip id="174" depart="3132.00" from="-1221454036#1" to="-476759673#2" departLane="best" departSpeed="max"/>
    <trip id="175" depart="3150.00" from="167443631#0" to="-316554020" departLane="best" departSpeed="max"/>
    <trip id="176" depart="3168.00" from="131860183#1" to="101529595" departLane="best" departSpeed="max"/>
    <trip id="177" depart="3186.00" from="-41163181#3" to="131685029#1" departLane="best" departSpeed="max"/>
    <trip id="178" depart="3204.00" from="-167443631#1" to="167442911" departLane="best" departSpeed="max"/>
    <trip id="179" depart="3222.00" from="-101529554#1" to="41163183#0" departLane="best" departSpeed="max"/>
    <trip id="180" depart="3240.00" from="101529601#1" to="167443628#2" departLane="best" departSpeed="max"/>
    <trip id="181" depart="3258.00" from="176215518#1" to="164787116" departLane="best" departSpeed="max"/>
    <trip id="182" depart="3276.00" from="-41163178#4" to="-101529596#1" departLane="best" departSpeed="max"/>
    <trip id="183" depart="3294.00" from="164787114#3" to="-343920701#1" departLane="best" departSpeed="max"/>
    <trip id="184" depart="3312.00" from="-316417114" to="37192091#3" departLane="best" departSpeed="max"/>
    <trip id="185" depart="3330.00" from="167443628#0" to="-277036932#0" departLane="best" departSpeed="max"/>
    <trip id="186" depart="3348.00" from="-305404138#3" to="-458530475#0" departLane="best" departSpeed="max"/>
    <trip id="187" depart="3366.00" from="-42638958#0" to="-213848618#1" departLane="best" departSpeed="max"/>
    <trip id="188" depart="3384.00" from="-131860183#0" to="-475322821#2" departLane="best" departSpeed="max"/>
    <trip id="189" depart="3402.00" from="420103605#6" to="166109759" departLane="best" departSpeed="max"/>
    <trip id="190" depart="3420.00" from="41163179#1" to="157364355#6" departLane="best" departSpeed="max"/>
    <trip id="191" depart="3438.00" from="-277036932#2" to="101529608#3" departLane="best" departSpeed="max"/>
    <trip id="192" depart="3456.00" from="-101529554#0" to="-202278146#0" departLane="best" departSpeed="max"/>
    <trip id="193" depart="3474.00" from="-475322821#2" to="131685625" departLane="best" departSpeed="max"/>
    <trip id="194" depart="3492.00" from="158331739#0" to="101529560" departLane="best" departSpeed="max"/>
    <trip id="195" depart="3510.00" from="-476759673#2" to="-166109764" departLane="best" departSpeed="max"/>
    <trip id="196" depart="3528.00" from="101529563#1" to="41163179#0" departLane="best" departSpeed="max"/>
    <trip id="197" depart="3546.00" from="316451262" to="-158331422#0" departLane="best" departSpeed="max"/>
    <trip id="198" depart="3564.00" from="-101529604#0" to="101529597#0" departLane="best" departSpeed="max"/>
    <trip id="199" depart="3582.00" from="158065942" to="-343920703#1" departLane="best" departSpeed="max"/>
</routes>
