<?xml version="1.0" encoding="UTF-8"?>

<!-- generated on 2026-03-31 19:58:42.208852 by Eclipse SUMO randomTrips.py v1_25_0+0000-ac6c5a6752d
<configuration>
    <net-file value="sumo_network/blida_tls.net.xml"/>
    <output-trip-file value="sumo_network/routes_medium.rou.xml"/>
    <trip-attributes value="departLane=&quot;best&quot; departSpeed=&quot;max&quot;"/>
    <remove-loops value="True"/>
    <period value="7.2"/>
</configuration>
-->

<routes xmlns:xsi="http://www.w3.org/2001/XMLSchema-instance" xsi:noNamespaceSchemaLocation="http://sumo.dlr.de/xsd/routes_file.xsd">
    <trip id="0" depart="0.00" from="158067302#0" to="-101529564#1" departLane="best" departSpeed="max"/>
    <trip id="1" depart="7.20" from="-188625453#0" to="-166112566#4" departLane="best" departSpeed="max"/>
    <trip id="2" depart="14.40" from="174997407#0" to="166108477" departLane="best" departSpeed="max"/>
    <trip id="3" depart="21.60" from="41163178#3" to="-101529601#3" departLane="best" departSpeed="max"/>
    <trip id="4" depart="28.80" from="-458530475#6" to="-101529565#2" departLane="best" departSpeed="max"/>
    <trip id="5" depart="36.00" from="-166112567#0" to="101529584#7" departLane="best" departSpeed="max"/>
    <trip id="6" depart="43.20" from="-101529564#1" to="-164787115#4" departLane="best" departSpeed="max"/>
    <trip id="7" depart="50.40" from="158331424#0" to="101529608#1" departLane="best" departSpeed="max"/>
    <trip id="8" depart="57.60" from="-166112567#1" to="131694126#2" departLane="best" departSpeed="max"/>
    <trip id="9" depart="64.80" from="331831045#1" to="-101529556#1" departLane="best" departSpeed="max"/>
    <trip id="10" depart="72.00" from="331831041#2" to="166112568#0" departLane="best" departSpeed="max"/>
    <trip id="11" depart="79.20" from="-343920703#1" to="-158065941" departLane="best" departSpeed="max"/>
    <trip id="12" depart="86.40" from="458530475#2" to="-355151258" departLane="best" departSpeed="max"/>
    <trip id="13" depart="93.60" from="-101529608#0" to="-101529608#0" departLane="best" departSpeed="max"/>
    <trip id="14" depart="100.80" from="37192091#2" to="131860496#0" departLane="best" departSpeed="max"/>
    <trip id="15" depart="108.00" from="331831045#0" to="167444111#1" departLane="best" departSpeed="max"/>
    <trip id="16" depart="115.20" from="101529600#3" to="475322821#7" departLane="best" departSpeed="max"/>
    <trip id="17" depart="122.40" from="-41163180#3" to="101529608#7" departLane="best" departSpeed="max"/>
    <trip id="18" depart="129.60" from="358379962#4" to="157364355#8" departLane="best" departSpeed="max"/>
    <trip id="19" depart="136.80" from="37192362#16" to="131685624" departLane="best" departSpeed="max"/>
    <trip id="20" depart="144.00" from="166112568#0" to="-101529581#1" departLane="best" departSpeed="max"/>
    <trip id="21" depart="151.20" from="-166157817" to="-202278146#1" departLane="best" departSpeed="max"/>
    <trip id="22" depart="158.40" from="-101529601#2" to="-166157817" departLane="best" departSpeed="max"/>
    <trip id="23" depart="165.60" from="-101529608#6" to="-188625453#2" departLane="best" departSpeed="max"/>
    <trip id="24" depart="172.80" from="158066951#0" to="-41163179#0" departLane="best" departSpeed="max"/>
    <trip id="25" depart="180.00" from="-41163178#7" to="-166109761" departLane="best" departSpeed="max"/>
    <trip id="26" depart="187.20" from="-176215518#2" to="420103605#4" departLane="best" departSpeed="max"/>
    <trip id="27" depart="194.40" from="158331422#1" to="157364355#2" departLane="best" departSpeed="max"/>
    <trip id="28" depart="201.60" from="-158331422#1" to="167444111#1" departLane="best" departSpeed="max"/>
    <trip id="29" depart="208.80" from="-158067302#2" to="-41163181#4" departLane="best" departSpeed="max"/>
    <trip id="30" depart="216.00" from="56039233" to="158190657" departLane="best" departSpeed="max"/>
    <trip id="31" depart="223.20" from="101529608#2" to="166111207" departLane="best" departSpeed="max"/>
    <trip id="32" depart="230.40" from="364674679#1" to="254618313" departLane="best" departSpeed="max"/>
    <trip id="33" depart="237.60" from="-166157817" to="-101529565#4" departLane="best" departSpeed="max"/>
    <trip id="34" depart="244.80" from="-316554020" to="-176215518#2" departLane="best" departSpeed="max"/>
    <trip id="35" depart="252.00" from="-166111207" to="420103605#7" departLane="best" departSpeed="max"/>
    <trip id="36" depart="259.20" from="37192362#9" to="-317069656" departLane="best" departSpeed="max"/>
    <trip id="37" depart="266.40" from="158331739#1" to="-42638958#0" departLane="best" departSpeed="max"/>
    <trip id="38" depart="273.60" from="41163181#3" to="101529557#1" departLane="best" departSpeed="max"/>
    <trip id="39" depart="280.80" from="-176215518#1" to="-167443628#2" departLane="best" departSpeed="max"/>
    <trip id="40" depart="288.00" from="101529608#6" to="-174997407#1" departLane="best" departSpeed="max"/>
    <trip id="41" depart="295.20" from="131685624" to="41163178#7" departLane="best" departSpeed="max"/>
    <trip id="42" depart="302.40" from="-41163183#1" to="-166112566#2" departLane="best" departSpeed="max"/>
    <trip id="43" depart="309.60" from="623589546#0" to="101529587" departLane="best" departSpeed="max"/>
    <trip id="44" depart="316.80" from="-101529607" to="-101529583" departLane="best" departSpeed="max"/>
    <trip id="45" depart="324.00" from="-1221454043" to="158065941" departLane="best" departSpeed="max"/>
    <trip id="46" depart="331.20" from="305404138#0" to="-475322821#5" departLane="best" departSpeed="max"/>
    <trip id="47" depart="338.40" from="-101529596#0" to="-41163181#5" departLane="best" departSpeed="max"/>
    <trip id="48" depart="345.60" from="623589545" to="101529601#1" departLane="best" departSpeed="max"/>
    <trip id="49" depart="352.80" from="475322821#6" to="37192362#18" departLane="best" departSpeed="max"/>
    <trip id="50" depart="360.00" from="-101529558#0" to="167443629#0" departLane="best" departSpeed="max"/>
    <trip id="51" depart="367.20" from="166108477" to="101529604#1" departLane="best" departSpeed="max"/>
    <trip id="52" depart="374.40" from="-176215518#2" to="158190658" departLane="best" departSpeed="max"/>
    <trip id="53" depart="381.60" from="-131685029#0" to="-476759673#2" departLane="best" departSpeed="max"/>
    <trip id="54" depart="388.80" from="-623589546#0" to="42638968#3" departLane="best" departSpeed="max"/>
    <trip id="55" depart="396.00" from="37192362#9" to="-176215518#0" departLane="best" departSpeed="max"/>
    <trip id="56" depart="403.20" from="101529581#1" to="-158331739#0" departLane="best" departSpeed="max"/>
    <trip id="57" depart="410.40" from="41163181#2" to="37192362#7" departLane="best" departSpeed="max"/>
    <trip id="58" depart="417.60" from="-254618313" to="158190657" departLane="best" departSpeed="max"/>
    <trip id="59" depart="424.80" from="131860496#0" to="-158065939#1" departLane="best" departSpeed="max"/>
    <trip id="60" depart="432.00" from="202278144#1" to="101529606" departLane="best" departSpeed="max"/>
    <trip id="61" depart="439.20" from="254618313" to="101529601#2" departLane="best" departSpeed="max"/>
    <trip id="62" depart="446.40" from="-101529554#0" to="-331831045#1" departLane="best" departSpeed="max"/>
    <trip id="63" depart="453.60" from="-101529563#1" to="41163183#2" departLane="best" departSpeed="max"/>
    <trip id="64" depart="460.80" from="387583698#0" to="358379962#5" departLane="best" departSpeed="max"/>
    <trip id="65" depart="468.00" from="-305404138#1" to="-101529584#6" departLane="best" departSpeed="max"/>
    <trip id="66" depart="475.20" from="380665028" to="42638961#1" departLane="best" departSpeed="max"/>
    <trip id="67" depart="482.40" from="-101529604#1" to="101529565#6" departLane="best" departSpeed="max"/>
    <trip id="68" depart="489.60" from="-101529597#1" to="202278144#2" departLane="best" departSpeed="max"/>
    <trip id="69" depart="496.80" from="202278144#4" to="-131860183#0" departLane="best" departSpeed="max"/>
    <trip id="70" depart="504.00" from="101529563#2" to="101529608#4" departLane="best" departSpeed="max"/>
    <trip id="71" depart="511.20" from="-176215518#1" to="37192362#8" departLane="best" departSpeed="max"/>
    <trip id="72" depart="518.40" from="-458530475#7" to="-166109763" departLane="best" departSpeed="max"/>
    <trip id="73" depart="525.60" from="101529601#1" to="167444111#1" departLane="best" departSpeed="max"/>
    <trip id="74" depart="532.80" from="-164787117#1" to="-315524869" departLane="best" departSpeed="max"/>
    <trip id="75" depart="540.00" from="623589544" to="158331739#1" departLane="best" departSpeed="max"/>
    <trip id="76" depart="547.20" from="-476759672#5" to="101529597#1" departLane="best" departSpeed="max"/>
    <trip id="77" depart="554.40" from="-131685626#3" to="-166112567#0" departLane="best" departSpeed="max"/>
    <trip id="78" depart="561.60" from="-343920702" to="131694126#2" departLane="best" departSpeed="max"/>
    <trip id="79" depart="568.80" from="-101529597#2" to="158066951#1" departLane="best" departSpeed="max"/>
    <trip id="80" depart="576.00" from="-166157817" to="41163180#2" departLane="best" departSpeed="max"/>
    <trip id="81" depart="583.20" from="37192362#15" to="-101529596#1" departLane="best" departSpeed="max"/>
    <trip id="82" depart="590.40" from="-167442912" to="164787115#4" departLane="best" departSpeed="max"/>
    <trip id="83" depart="597.60" from="-166112566#2" to="-131860496#0" departLane="best" departSpeed="max"/>
    <trip id="84" depart="604.80" from="420103605#3" to="128927161#1" departLane="best" departSpeed="max"/>
    <trip id="85" depart="612.00" from="101529563#0" to="277037139#1" departLane="best" departSpeed="max"/>
    <trip id="86" depart="619.20" from="331831045#0" to="-164787114#6" departLane="best" departSpeed="max"/>
    <trip id="87" depart="626.40" from="-101529608#3" to="-476759672#5" departLane="best" departSpeed="max"/>
    <trip id="88" depart="633.60" from="-458530475#7" to="101529563#0" departLane="best" departSpeed="max"/>
    <trip id="89" depart="640.80" from="167443631#0" to="164787117#0" departLane="best" departSpeed="max"/>
    <trip id="90" depart="648.00" from="476759673#3" to="-101529608#1" departLane="best" departSpeed="max"/>
    <trip id="91" depart="655.20" from="-42638958#0" to="-363488901#1" departLane="best" departSpeed="max"/>
    <trip id="92" depart="662.40" from="37192362#16" to="-167443629#0" departLane="best" departSpeed="max"/>
    <trip id="93" depart="669.60" from="-164787114#8" to="101529554#0" departLane="best" departSpeed="max"/>
    <trip id="94" depart="676.80" from="-458530475#6" to="-188625453#2" departLane="best" departSpeed="max"/>
    <trip id="95" depart="684.00" from="-167443629#1" to="41163182#3" departLane="best" departSpeed="max"/>
    <trip id="96" depart="691.20" from="-476759673#3" to="37192362#18" departLane="best" departSpeed="max"/>
    <trip id="97" depart="698.40" from="101529606" to="-101529584#10" departLane="best" departSpeed="max"/>
    <trip id="98" depart="705.60" from="623589546#1" to="363490839#1" departLane="best" departSpeed="max"/>
    <trip id="99" depart="712.80" from="475322821#4" to="41163183#0" departLane="best" departSpeed="max"/>
    <trip id="100" depart="720.00" from="37192091#3" to="-158067302#2" departLane="best" departSpeed="max"/>
    <trip id="101" depart="727.20" from="101529565#2" to="-166109764" departLane="best" departSpeed="max"/>
    <trip id="102" depart="734.40" from="-41163183#2" to="-101529584#6" departLane="best" departSpeed="max"/>
    <trip id="103" depart="741.60" from="-41163180#3" to="476759674" departLane="best" departSpeed="max"/>
    <trip id="104" depart="748.80" from="-176215518#1" to="277037139#0" departLane="best" departSpeed="max"/>
    <trip id="105" depart="756.00" from="-623589546#1" to="-475322821#5" departLane="best" departSpeed="max"/>
    <trip id="106" depart="763.20" from="458530475#3" to="623589545" departLane="best" departSpeed="max"/>
    <trip id="107" depart="770.40" from="101529608#2" to="167443628#2" departLane="best" departSpeed="max"/>
    <trip id="108" depart="777.60" from="-158065941" to="-213848618#2" departLane="best" departSpeed="max"/>
    <trip id="109" depart="784.80" from="475322821#4" to="131685625" departLane="best" departSpeed="max"/>
    <trip id="110" depart="792.00" from="101529601#3" to="185780228#1" departLane="best" departSpeed="max"/>
    <trip id="111" depart="799.20" from="-101529584#8" to="131685626#3" departLane="best" departSpeed="max"/>
    <trip id="112" depart="806.40" from="101529583" to="37192362#11" departLane="best" departSpeed="max"/>
    <trip id="113" depart="813.60" from="-158066951#0" to="458530475#6" departLane="best" departSpeed="max"/>
    <trip id="114" depart="820.80" from="-101529601#2" to="-164787114#2" departLane="best" departSpeed="max"/>
    <trip id="115" depart="828.00" from="131694126#2" to="166108477" departLane="best" departSpeed="max"/>
    <trip id="116" depart="835.20" from="-167442434" to="-131685626#0" departLane="best" departSpeed="max"/>
    <trip id="117" depart="842.40" from="41163178#2" to="-167443628#2" departLane="best" departSpeed="max"/>
    <trip id="118" depart="849.60" from="131694126#1" to="157364355#8" departLane="best" departSpeed="max"/>
    <trip id="119" depart="856.80" from="-458530475#3" to="131685626#3" departLane="best" departSpeed="max"/>
    <trip id="120" depart="864.00" from="101529595" to="420103605#0" departLane="best" departSpeed="max"/>
    <trip id="121" depart="871.20" from="-166109759" to="167443626" departLane="best" departSpeed="max"/>
    <trip id="122" depart="878.40" from="-167442912" to="-42638958#0" departLane="best" departSpeed="max"/>
    <trip id="123" depart="885.60" from="164787115#1" to="-277036932#0" departLane="best" departSpeed="max"/>
    <trip id="124" depart="892.80" from="-316554020" to="188625453#2" departLane="best" departSpeed="max"/>
    <trip id="125" depart="900.00" from="-101529598" to="101529557#1" departLane="best" departSpeed="max"/>
    <trip id="126" depart="907.20" from="623589546#1" to="623589545" departLane="best" departSpeed="max"/>
    <trip id="127" depart="914.40" from="-101529600#2" to="-166109764" departLane="best" departSpeed="max"/>
    <trip id="128" depart="921.60" from="-176215518#1" to="41163591#1" departLane="best" departSpeed="max"/>
    <trip id="129" depart="928.80" from="387583698#1" to="387583698#0" departLane="best" departSpeed="max"/>
    <trip id="130" depart="936.00" from="-41163178#7" to="-158065942" departLane="best" departSpeed="max"/>
    <trip id="131" depart="943.20" from="157364355#0" to="541561687#1" departLane="best" departSpeed="max"/>
    <trip id="132" depart="950.40" from="158331739#0" to="-101529556#1" departLane="best" departSpeed="max"/>
    <trip id="133" depart="957.60" from="343920702" to="-254618313" departLane="best" departSpeed="max"/>
    <trip id="134" depart="964.80" from="164787114#3" to="420103605#5" departLane="best" departSpeed="max"/>
    <trip id="135" depart="972.00" from="-1221454036#0" to="101529608#8" departLane="best" departSpeed="max"/>
    <trip id="136" depart="979.20" from="-185780228#1" to="131860496#1" departLane="best" departSpeed="max"/>
    <trip id="137" depart="986.40" from="167443626" to="-164787117#1" departLane="best" departSpeed="max"/>
    <trip id="138" depart="993.60" from="158065942" to="-176215518#0" departLane="best" departSpeed="max"/>
    <trip id="139" depart="1000.80" from="101529565#4" to="41163180#2" departLane="best" departSpeed="max"/>
    <trip id="140" depart="1008.00" from="37192091#1" to="-101529604#2" departLane="best" departSpeed="max"/>
    <trip id="141" depart="1015.20" from="-458530475#7" to="-188625453#1" departLane="best" departSpeed="max"/>
    <trip id="142" depart="1022.40" from="-101529555" to="213848618#0" departLane="best" departSpeed="max"/>
    <trip id="143" depart="1029.60" from="158066951#1" to="-174997407#1" departLane="best" departSpeed="max"/>
    <trip id="144" depart="1036.80" from="176215518#1" to="101529608#7" departLane="best" departSpeed="max"/>
    <trip id="145" depart="1044.00" from="-475322821#1" to="-101529557#3" departLane="best" departSpeed="max"/>
    <trip id="146" depart="1051.20" from="-101529600#3" to="41163136#1" departLane="best" departSpeed="max"/>
    <trip id="147" depart="1058.40" from="41163180#0" to="101529608#2" departLane="best" departSpeed="max"/>
    <trip id="148" depart="1065.60" from="363488901#1" to="131685626#2" departLane="best" departSpeed="max"/>
    <trip id="149" depart="1072.80" from="-157364355#9" to="-131859526" departLane="best" departSpeed="max"/>
    <trip id="150" depart="1080.00" from="-305404138#1" to="41163178#8" departLane="best" departSpeed="max"/>
    <trip id="151" depart="1087.20" from="316451262" to="37192362#18" departLane="best" departSpeed="max"/>
    <trip id="152" depart="1094.40" from="41163178#8" to="-166109761" departLane="best" departSpeed="max"/>
    <trip id="153" depart="1101.60" from="-167443629#1" to="-101529608#3" departLane="best" departSpeed="max"/>
    <trip id="154" depart="1108.80" from="26325056#0" to="41163136#1" departLane="best" departSpeed="max"/>
    <trip id="155" depart="1116.00" from="-42638961#0" to="157364355#9" departLane="best" departSpeed="max"/>
    <trip id="156" depart="1123.20" from="-158065941" to="41163183#2" departLane="best" departSpeed="max"/>
    <trip id="157" depart="1130.40" from="37192362#2" to="476759672#2" departLane="best" departSpeed="max"/>
    <trip id="158" depart="1137.60" from="-101529564#0" to="176215518#0" departLane="best" departSpeed="max"/>
    <trip id="159" depart="1144.80" from="-339587411" to="41163591#0" departLane="best" departSpeed="max"/>
    <trip id="160" depart="1152.00" from="331831041#0" to="37192362#3" departLane="best" departSpeed="max"/>
    <trip id="161" depart="1159.20" from="277036932#2" to="-101529608#8" departLane="best" departSpeed="max"/>
    <trip id="162" depart="1166.40" from="37192362#7" to="37192362#15" departLane="best" departSpeed="max"/>
    <trip id="163" depart="1173.60" from="-166112567#2" to="343920701#1" departLane="best" departSpeed="max"/>
    <trip id="164" depart="1180.80" from="101529555" to="-277037139#0" departLane="best" departSpeed="max"/>
    <trip id="165" depart="1188.00" from="315524869" to="-166112567#2" departLane="best" departSpeed="max"/>
    <trip id="166" depart="1195.20" from="-101529563#3" to="-164787114#8" departLane="best" departSpeed="max"/>
    <trip id="167" depart="1202.40" from="-331831045#0" to="37192362#3" departLane="best" departSpeed="max"/>
    <trip id="168" depart="1209.60" from="475322821#2" to="-188625453#3" departLane="best" departSpeed="max"/>
    <trip id="169" depart="1216.80" from="158067302#2" to="-42638961#1" departLane="best" departSpeed="max"/>
    <trip id="170" depart="1224.00" from="476759673#2" to="101529604#1" departLane="best" departSpeed="max"/>
    <trip id="171" depart="1231.20" from="420103605#5" to="-131685029#1" departLane="best" departSpeed="max"/>
    <trip id="172" depart="1238.40" from="475322821#6" to="-158331739#0" departLane="best" departSpeed="max"/>
    <trip id="173" depart="1245.60" from="458530475#7" to="-176215518#1" departLane="best" departSpeed="max"/>
    <trip id="174" depart="1252.80" from="-1221454036#1" to="-476759673#2" departLane="best" departSpeed="max"/>
    <trip id="175" depart="1260.00" from="167443631#0" to="-316554020" departLane="best" departSpeed="max"/>
    <trip id="176" depart="1267.20" from="131860183#1" to="101529595" departLane="best" departSpeed="max"/>
    <trip id="177" depart="1274.40" from="-41163181#3" to="131685029#1" departLane="best" departSpeed="max"/>
    <trip id="178" depart="1281.60" from="-167443631#1" to="167442911" departLane="best" departSpeed="max"/>
    <trip id="179" depart="1288.80" from="-101529554#1" to="41163183#0" departLane="best" departSpeed="max"/>
    <trip id="180" depart="1296.00" from="101529601#1" to="167443628#2" departLane="best" departSpeed="max"/>
    <trip id="181" depart="1303.20" from="176215518#1" to="164787116" departLane="best" departSpeed="max"/>
    <trip id="182" depart="1310.40" from="-41163178#4" to="-101529596#1" departLane="best" departSpeed="max"/>
    <trip id="183" depart="1317.60" from="164787114#3" to="-343920701#1" departLane="best" departSpeed="max"/>
    <trip id="184" depart="1324.80" from="-316417114" to="37192091#3" departLane="best" departSpeed="max"/>
    <trip id="185" depart="1332.00" from="167443628#0" to="-277036932#0" departLane="best" departSpeed="max"/>
    <trip id="186" depart="1339.20" from="-305404138#3" to="-458530475#0" departLane="best" departSpeed="max"/>
    <trip id="187" depart="1346.40" from="-42638958#0" to="-213848618#1" departLane="best" departSpeed="max"/>
    <trip id="188" depart="1353.60" from="-131860183#0" to="-475322821#2" departLane="best" departSpeed="max"/>
    <trip id="189" depart="1360.80" from="420103605#6" to="166109759" departLane="best" departSpeed="max"/>
    <trip id="190" depart="1368.00" from="41163179#1" to="157364355#6" departLane="best" departSpeed="max"/>
    <trip id="191" depart="1375.20" from="-277036932#2" to="101529608#3" departLane="best" departSpeed="max"/>
    <trip id="192" depart="1382.40" from="-101529554#0" to="-202278146#0" departLane="best" departSpeed="max"/>
    <trip id="193" depart="1389.60" from="-475322821#2" to="131685625" departLane="best" departSpeed="max"/>
    <trip id="194" depart="1396.80" from="158331739#0" to="101529560" departLane="best" departSpeed="max"/>
    <trip id="195" depart="1404.00" from="-476759673#2" to="-166109764" departLane="best" departSpeed="max"/>
    <trip id="196" depart="1411.20" from="101529563#1" to="41163179#0" departLane="best" departSpeed="max"/>
    <trip id="197" depart="1418.40" from="316451262" to="-158331422#0" departLane="best" departSpeed="max"/>
    <trip id="198" depart="1425.60" from="-101529604#0" to="101529597#0" departLane="best" departSpeed="max"/>
    <trip id="199" depart="1432.80" from="158065942" to="-343920703#1" departLane="best" departSpeed="max"/>
    <trip id="200" depart="1440.00" from="343920703#0" to="188625453#1" departLane="best" departSpeed="max"/>
    <trip id="201" depart="1447.20" from="164787115#2" to="-166112567#0" departLane="best" departSpeed="max"/>
    <trip id="202" depart="1454.40" from="-164787116" to="-101529564#1" departLane="best" departSpeed="max"/>
    <trip id="203" depart="1461.60" from="-167443628#1" to="101529564#1" departLane="best" departSpeed="max"/>
    <trip id="204" depart="1468.80" from="37192362#0" to="-101529597#0" departLane="best" departSpeed="max"/>
    <trip id="205" depart="1476.00" from="-42638968#3" to="158066951#0" departLane="best" departSpeed="max"/>
    <trip id="206" depart="1483.20" from="-164787115#1" to="166112567#3" departLane="best" departSpeed="max"/>
    <trip id="207" depart="1490.40" from="101529567#1" to="-167443628#0" departLane="best" departSpeed="max"/>
    <trip id="208" depart="1497.60" from="158331739#1" to="-101529556#0" departLane="best" departSpeed="max"/>
    <trip id="209" depart="1504.80" from="185780228#1" to="202278146#3" departLane="best" departSpeed="max"/>
    <trip id="210" depart="1512.00" from="-1221454036#0" to="-475322821#7" departLane="best" departSpeed="max"/>
    <trip id="211" depart="1519.20" from="-158331424#2" to="458530475#3" departLane="best" departSpeed="max"/>
    <trip id="212" depart="1526.40" from="101529584#9" to="-101529584#10" departLane="best" departSpeed="max"/>
    <trip id="213" depart="1533.60" from="-167443629#1" to="37192091#3" departLane="best" departSpeed="max"/>
    <trip id="214" depart="1540.80" from="101529554#0" to="317069656" departLane="best" departSpeed="max"/>
    <trip id="215" depart="1548.00" from="164787114#6" to="541561687#3" departLane="best" departSpeed="max"/>
    <trip id="216" depart="1555.20" from="131694126#2" to="42638968#1" departLane="best" departSpeed="max"/>
    <trip id="217" depart="1562.40" from="41163178#3" to="157364355#4" departLane="best" departSpeed="max"/>
    <trip id="218" depart="1569.60" from="167443628#0" to="101529584#7" departLane="best" departSpeed="max"/>
    <trip id="219" depart="1576.80" from="358379962#4" to="101529608#3" departLane="best" departSpeed="max"/>
    <trip id="220" depart="1584.00" from="41163178#7" to="176215519" departLane="best" departSpeed="max"/>
    <trip id="221" depart="1591.20" from="101529563#1" to="-174997365" departLane="best" departSpeed="max"/>
    <trip id="222" depart="1598.40" from="-167443629#0" to="158067302#3" departLane="best" departSpeed="max"/>
    <trip id="223" depart="1605.60" from="202278144#3" to="101529598" departLane="best" departSpeed="max"/>
    <trip id="224" depart="1612.80" from="158065939#0" to="-188625453#0" departLane="best" departSpeed="max"/>
    <trip id="225" depart="1620.00" from="-101529601#0" to="-202278145#1" departLane="best" departSpeed="max"/>
    <trip id="226" depart="1627.20" from="-185780228#0" to="-331831041#1" departLane="best" departSpeed="max"/>
    <trip id="227" depart="1634.40" from="101529601#2" to="-157364355#2" departLane="best" departSpeed="max"/>
    <trip id="228" depart="1641.60" from="-167442430" to="166112567#1" departLane="best" departSpeed="max"/>
    <trip id="229" depart="1648.80" from="166112568#1" to="-101529587" departLane="best" departSpeed="max"/>
    <trip id="230" depart="1656.00" from="-42638961#1" to="101529608#0" departLane="best" departSpeed="max"/>
    <trip id="231" depart="1663.20" from="-458530475#0" to="-166109759" departLane="best" departSpeed="max"/>
    <trip id="232" depart="1670.40" from="-458530475#4" to="41163180#0" departLane="best" departSpeed="max"/>
    <trip id="233" depart="1677.60" from="131685624" to="166112567#2" departLane="best" departSpeed="max"/>
    <trip id="234" depart="1684.80" from="37192362#12" to="202278146#1" departLane="best" departSpeed="max"/>
    <trip id="235" depart="1692.00" from="-41163180#4" to="-101529556#0" departLane="best" departSpeed="max"/>
    <trip id="236" depart="1699.20" from="-37254021" to="188625453#3" departLane="best" departSpeed="max"/>
    <trip id="237" depart="1706.40" from="37192362#10" to="42638968#3" departLane="best" departSpeed="max"/>
    <trip id="238" depart="1713.60" from="-458530475#3" to="185780228#1" departLane="best" departSpeed="max"/>
    <trip id="239" depart="1720.80" from="101529604#1" to="131860496#0" departLane="best" departSpeed="max"/>
    <trip id="240" depart="1728.00" from="-166112567#1" to="-166112566#2" departLane="best" departSpeed="max"/>
    <trip id="241" depart="1735.20" from="-476759672#2" to="-101529565#2" departLane="best" departSpeed="max"/>
    <trip id="242" depart="1742.40" from="-343920701#1" to="166109760" departLane="best" departSpeed="max"/>
    <trip id="243" depart="1749.60" from="-42638958#1" to="-158067302#2" departLane="best" departSpeed="max"/>
    <trip id="244" depart="1756.80" from="101529558#0" to="-131859526" departLane="best" departSpeed="max"/>
    <trip id="245" depart="1764.00" from="157364355#7" to="-101529565#1" departLane="best" departSpeed="max"/>
    <trip id="246" depart="1771.20" from="-41163182#3" to="128927152" departLane="best" departSpeed="max"/>
    <trip id="247" depart="1778.40" from="-101529565#0" to="158331422#0" departLane="best" departSpeed="max"/>
    <trip id="248" depart="1785.60" from="-157364355#1" to="101529558#1" departLane="best" departSpeed="max"/>
    <trip id="249" depart="1792.80" from="-101529584#3" to="-41163181#4" departLane="best" departSpeed="max"/>
    <trip id="250" depart="1800.00" from="202278144#1" to="-41163181#4" departLane="best" departSpeed="max"/>
    <trip id="251" depart="1807.20" from="188625453#0" to="358379962#5" departLane="best" departSpeed="max"/>
    <trip id="252" depart="1814.40" from="-167443631#0" to="-101529601#0" departLane="best" departSpeed="max"/>
    <trip id="253" depart="1821.60" from="-101529563#1" to="101529606" departLane="best" departSpeed="max"/>
    <trip id="254" depart="1828.80" from="623589546#1" to="-41163136#1" departLane="best" departSpeed="max"/>
    <trip id="255" depart="1836.00" from="158331424#0" to="277036932#1" departLane="best" departSpeed="max"/>
    <trip id="256" depart="1843.20" from="158331424#1" to="188625453#3" departLane="best" departSpeed="max"/>
    <trip id="257" depart="1850.40" from="42638968#1" to="-164787115#4" departLane="best" departSpeed="max"/>
    <trip id="258" depart="1857.60" from="-101529563#1" to="-158065939#1" departLane="best" departSpeed="max"/>
    <trip id="259" depart="1864.80" from="-131859526" to="164787115#4" departLane="best" departSpeed="max"/>
    <trip id="260" depart="1872.00" from="101529608#8" to="-166112566#1" departLane="best" departSpeed="max"/>
    <trip id="261" depart="1879.20" from="166112567#0" to="202278146#1" departLane="best" departSpeed="max"/>
    <trip id="262" depart="1886.40" from="-158190658" to="157364355#1" departLane="best" departSpeed="max"/>
    <trip id="263" depart="1893.60" from="176215519" to="-131685029#1" departLane="best" departSpeed="max"/>
    <trip id="264" depart="1900.80" from="343920703#0" to="458557721" departLane="best" departSpeed="max"/>
    <trip id="265" depart="1908.00" from="-1221454036#1" to="-101529565#0" departLane="best" departSpeed="max"/>
    <trip id="266" depart="1915.20" from="-315524869" to="166109759" departLane="best" departSpeed="max"/>